         MACRO
&NAME    RUNCMD
.*
.*             THIS MACRO INVOKES JOL TO RUN UNDER TSO/TSS.
.*
         ACTR  400000        SEEMS TO REQUIRE MORE THAN THE DEFAULT
         LCLA  &A,&A2
         LCLA  &LETVAL
         LCLB  &B,&B1          FLAG
         LCLB  &ERR            ERROR FLAG
         LCLB  &MVSXA,&MVS,&F4
         LCLC  &LETPR
         LCLC  &C,&CX,&WRKUNIT,&PRE,&SOUT
         LCLC  &PE,&PI,&PM,&LT,&SB,&TST
         LCLC  &FL,&CT,&PJ,&PO,&PC,&SYNT
         LCLC  &TITLE
&LETPR   SETC  'PROMPT'            DEFAULT FOR SECOND LET SUBFIELD
&TITLE   SETC  'JOL/TSO INTERFACE       '
&NAME    TITLE '&TITLE MAINLINE CODE'
         PUNCH '         PAGE      &NAME'
&A       SETA  0
&NAME    CSECT
         SPACE 2
* DEFINE SYMBOLIC NAMES FOR THE GENERAL PURPOSE REGISTERS
&A       SETA  0
         SPACE
.EQ010   AIF   (&A GT 15).EQ090
&C       SETC  'R'.'&A'
         AIF   (&A GT 9).EQ020
&C       SETC  'R'.'0'.'&A'
.EQ020   ANOP
&C       EQU   &A
&A       SETA  &A+1
         AGO   .EQ010
.EQ090   ANOP
         SPACE 1
CBUFREG  EQU   R07                 REG PTS TO COMMAND BUFFER
UPTREG   EQU   R08                 REG PTS TO USER PROFILE TABLE
PSCBREG  EQU   R09                 REG PTS TO PSCB
ECTREG   EQU   R10                 REG PTS TO ECT
         SPACE 1
         USING &NAME,R15
         B     &PRE.010
         DC    AL1(&PRE.010-*),C'&NAME VERSION 4.0 ASSEMBLED AT &SYSTIM.
               E ON &SYSDATE'
         DC    C'   COPYRIGHT 1987 CCS-JOL PTY LTD'
&PRE.010 DS    0H
         STM   R14,R12,12(R13)     SAVE REGISTERS
         LR    R12,R15             LOAD
         LA    R11,2048(0,R12)
         LA    R11,2048(0,R11)     ADDRESS ANOTHER 4K
         USING &NAME,R12,R11        AND DECLARE BASE
         USING WKAREA,R13
         USING UPT,UPTREG
         USING PSCB,PSCBREG
         USING ECT,ECTREG
         DROP  R15
         LM    R07,R10,0(R01)      LOAD ADDRESSES OF PARAMETERS
         GETMAIN R,LV=WKALEN,SP=1  GET A WORK AREA
         ST    R13,4(0,R01)        CHAIN SAVE AREAS
         ST    R01,8(0,R13)
         LR    R13,R01
         LA    R15,WKALEN-8
         LA    R14,8(0,R13)
         SLR   R01,R01
         MVCL  R14,R00             CLEAR THE WORK AREA
         SPACE
         ST    UPTREG,IOPL
         ST    ECTREG,IOPL+4
         LA    R14,IOECB
         LA    R15,IOPB
         STM   R14,R15,IOPL+8
         SPACE
         TM    PSCBATR1,PSCBJCL    Q... JCL/JOL USER?
         BZ    &PRE.NJCL           A... NO: EXIT HIM
         SPACE
         LA    R01,MYPPL           SET UP ADDRESSABILITY FOR PPL
         USING PPL,R01
         ST    R01,PPLADDR         STORE PPL ADDR
         ST    UPTREG,PPLUPT       SET UP PARSE PARAMETER LIST
         ST    ECTREG,PPLECT
         LA    R00,MYECB
         ST    R00,PPLECB
&C       SETC  '&PRE'.'PARM'
         L     R00,=V(&C)          LOAD ADDRESS OF PARM DEFINITIONS
         ST    R00,PPLPCL
         LA    R00,PPLREPL
         ST    R00,PPLANS
         ST    R13,PPLUWA          STORE ADDRESS OF WORK AREA
         ST    CBUFREG,PPLCBUF
         LINK  EP=IKJPARS          LINK TO PARSE ROUTINE
         LTR   R15,R15             CHECK THAT PARSE COMPLETED OK
         BZ    &PRE.100            BRANCH IF IT DID
         ST    R15,TEMP            CONVERT RETURN CODE TO HEX
         UNPK  HEXCONV(9),TEMP
         TR    HEXCONV(9),HEXTAB
         LA    R15,MSGRC
         ST    R15,OLD1#2
         MVC   MSGRC(4),=Y(6,13)
         MVC   MSGRC+4(2),HEXCONV+6
         LA    R15,MSG3
         ST    R15,OLD1#1
         LA    R15,2
         ST    R15,OLD1
         PUTLINE MF=(E,IOPL),PARM=IOPB,                                C
               OUTPUT=(OLD1,TERM,SINGLE,INFOR)
         B     &PRE.900
         USING IKJPARMD,R03
&PRE.100 L     R03,PPLREPL         ADDRESS OF REPLY
         SPACE
         SPACE
*        CLI   SYNT+1,1             IF SYNTAX CHECK
*        BNE   *+8                  THEN
*        OI    FLAG,QSUB             ASK WHETHER TO SUBMIT
         SPACE
*   ALLOCATE INPUT DATASET
         SPACE
         LA    R01,DSNAME
         ST    R01,APDE            SET POINTER TO PDE FOR DSNAME
         LA    R00,4
         STH   R00,ASUFFIXL
         MVC   ASUFFIX,=CL9'.JOL'
         OI    AFLAG1,ASHR
         MVC   ADDNAME,=CL8'$$JIN'
         BAL   R14,ALLOCATE        ALLOCATE INPUT DATASET
         LTR   R15,R15
         BNZ   &PRE.900
         CLI   TUDSNENT,C'*'       ALLOCATED TO TERMINAL?
         BNE   &PRE.110            NO
         OI    FLAG,TERMIN         SET FLAG FOR LATER
         SPACE
*   ALLOCATE TERMINAL DATASET
         SPACE
&PRE.110 DS    0H
         CLI   TERMINAL+1,1
         BNE   &PRE.120
         OI    AFLAG1,ATERM
         MVC   ADDNAME,=CL8'SYSTERM'
         BAL   R14,ALLOCATE        ALLOCATE SYSTERM
         LTR   R15,R15
         BNZ   &PRE.900
         SPACE
         BAL   R14,STPARMS         GO AND SET-UP JOL PARAMETERS
         SPACE 3
         MVC   LINKSFE,LINKSFL
         MVC   LINKDCBE,LINKDCBL
         XC    DCBEXLST-IHADCB+LINKDCBE+1(3),DCBEXLST-IHADCB+LINKDCBE+1
*        MVI   OPENLIST,X'80'                              CVC
         LA    R01,OPENLIST                                CVC
         LA    R00,LINKDCBE                                CVC
         ST    R00,0(1,0)                                  CVC
         MVI   OPENLIST,X'80'
*        OPEN  LINKDCBE,MF=(E,OPENLIST)
         OI    PARM,X'80'          MARK END OF LIST
         TM    FLAG,TERMIN         Q... INPUT FROM TERMINAL?
         BZ    &PRE.315            A... NO
         LA    R15,MSG8            TIME TO ENTER JOL COMMANDS
         ST    R15,OLD1#1             SO TELL THE NICE USER
         LA    R15,1
         ST    R15,OLD1
         PUTLINE MF=(E,IOPL),PARM=IOPB,                                C
               OUTPUT=(OLD1,TERM,SINGLE,INFOR)
&PRE.315 DS    0H
         LINK  EP=&PGM,MF=(E,PARM),SF=(E,LINKSFE) DCB=LINKDCBE
&PRE.320 DS    0H
*        CLOSE MF=(E,OPENLIST)
         BAL   R14,QSUBMIT         FIND OUT WHETHER TO SUBMIT OR RUN
         B     &PRE.900            IF RETURN HERE THEN NO
         DS    0H                  RETURN HERE MEANS YES
         MVC   DCBDDNAM-IHADCB+LINKDCBE,=CL8'$$JCL'
         LA    R00,JFCBPTR
         STCM  R00,7,DCBEXLST-IHADCB+LINKDCBE+1
         LA    R00,WRKJFCB
         ST    R00,JFCBPTR
         MVI   JFCBPTR,X'87'
         RDJFCB MF=(E,OPENLIST)
         GETMAIN R,LV=64,SP=1
*        MVC   0(10,R01),=X'00370005D3C9E2E3407D'
         MVC   0(10,R01),=X'00370005E2E4C240407D'
         MVC   10(45,R01),WRKJFCB  COPY DSNAME
         LA    R14,10(0,R01)
         LA    R00,45
         CLI   1(R14),C' '
         LA    R14,1(0,R14)
         BE    *+8
         BCT   R00,*-12
         MVI   0(R14),C''''
* IF RUNNING NOW UNDER TSO, XCTL TO A DIFFERENT PROGRAM.
         CLI   TSO+1,X'01'  RUNNING NOW?
         BNE   DOSUB
DOTSO    L     R14,4(0,R13)
         L     R02,24(0,R14)
         ST    R01,00(0,R02)
         LR    R01,R13
         LR    R13,R14
         FREEMAIN R,LV=WKALEN,SP=1,A=(1)
         LR    R01,R02
         XCTL  (2,12),EP=$JOLDY40,MF=(E,(1))
DOSUB    L     R14,4(0,R13)
         L     R02,24(0,R14)
         ST    R01,00(0,R02)
         LR    R01,R13
         LR    R13,R14
         FREEMAIN R,LV=WKALEN,SP=1,A=(1)
         LR    R01,R02
*        XCTL  (2,12),EP=LIST,MF=(E,(1))
         XCTL  (2,12),EP=SUB,MF=(E,(1))
&PRE.900 DS    0H
         LR    R01,R13
         L     R13,4(0,R13)
         ST    R15,16(0,R13)      STORE RETURN CODE
         FREEMAIN R,LV=WKALEN,SP=1,A=(1)
         LM    R14,R12,12(R13)
         BR    R14
         TITLE '&TITLE SUBROUTINE TO SET-UP JOL PARAMETERS'
STPARMS  ST    R14,STPRETN
         LA    R00,PRMOPTNS        SET UP PARM LIST
         ST    R00,PARM
         LA    R15,PRMOPTNS+2
         XC    PRMOPTNS,PRMOPTNS
STP200   DS    0H
         LA    R00,PRMOPTNS+2
         SR    R15,R00
         STH   R15,PRMOPTNS
         L     R14,STPRETN
         BR    R14
         TITLE '&TITLE DYNAMIC CONCATENATION SUBROUTINE'
CONCAT   STM   R02,R14,CONCREGS    SAVE RETURN ADDRESS
         BAL   R14,DECONC          ENSURE DDNAME IS NOT CONCATENATED
         SLR   R04,R04             CLEAR DDNAME COUNTER
         L     R05,APDE            LOAD PDE ADDRESS
         USING DSPDE,R05
         OI    AFLAG1,APDS         INDICATE PARTITIONED DATASET
         MVC   CFLAGS,AFLAGS       SAVE ALLOCATION FLAGS
         MVC   CSUFFIX,ASUFFIXL    SAVE QUALIFIER SUFFIX
         LA    R03,TUCONC          ADDRESS OF TEXT UNIT
         XC    0(TUCONCL,R03),0(R03) CLEAR IT
         MVI   5(R03),8            STORE DDNAME LENGTH
         MVC   6(8,R03),ADDNAME    SAVE CONCATENATION DDNAME
CONC0050 DS    0H
         MVC   AFLAGS,CFLAGS       STORE ALLOCATION FLAGS
         MVC   ASUFFIXL(L'ASUFFIXL+L'ASUFFIX),CSUFFIX
         ST    R05,APDE            STORE PDE ADDRESS
         BAL   R14,ALLOCATE        ALLOCATE A DATASET
         LTR   R15,R15             Q... OK?
         BNZ   CONC0900            A... NO
         LA    R04,1(0,R04)        COUNT THE DDNAME
         CLI   TURETDD,X'00'
         BE    CONC0060
         LA    R03,10(0,R03)       ADDRESS THE NEXT
         MVI   5(R03),8            STORE THE LENGTH
         MVC   6(8,R03),TURETDD    COPY THE DDNAME
CONC0060 DS    0H
         ICM   R05,7,DSNEXT+1      POINT TO THE NEXT
         BNZ   CONC0050            PROCESS THE NEXT
CONC0100 DS    0H
         CH    R04,=H'1'
         BNH   CONC0900
         BAL   R14,INITS99R        INITIALISE THE REQ BLK
         MVI   S99VERB,X'03'       INDICATE CONCATENATION
         MVI   TUCONC+1,X'01'      TEXT UNIT TYPE
         STH   R04,TUCONC+2        NUMBER
         LA    R00,TUCONC          BUILD TEXT UNIT LIST
         LA    R15,S99TUPL
         ST    R00,0(,R15)         ENTRY TO THE LIST
         TM    CFLAG2,APERMC       Q... PERMANENT CONCATENATION?
         BZ    CONC0110            A... NO
         LA    R14,=X'00040000'    TEXT UNIT FOR PERMANENT CONCAT
         LA    R15,4(,R15)         POINT TO THE NEXT POSITION
         ST    R14,0(,R15)
CONC0110 DS    0H
         MVI   0(R15),X'80'        END OF THE LIST
         LA    R01,S99RBPTR
SVC99B   SVC   99                  ISSUE THE REQUEST
         LTR   R15,R15             Q... OK?
         BZ    CONC0800            A... YES
         BAL   R14,S99MSG          ISSUE AN ERROR MSG
         LA    R15,8
         B     CONC0900            EXIT
CONC0800 DS    0H
CONC0900 DS    0H
         XC    APT,APT             ENSURE APT IS CLEARED
         LM    R02,R14,CONCREGS
         BR    R14
         TITLE '&TITLE DYNAMIC ALLOCATION ROUTINE'
ALLOCATE STM   R02,R14,ALLCREGS
.*  TEXT UNIT TYPES
.*   VOLSER  X'0010'
.*   DUMMY   X'00240000'
         BAL   R14,INITS99R
         LA    R06,S99TUPL-4       POINTER TO TEXT UNIT POINTER
         TM    AFLAG1,ANULL
         BO    ALLC0100            GO AND ALLOCATE A DUMMY DATASET
         TM    AFLAG1,ASOUT
         BO    ALLC0200            GO AND ALLOCATE A SYSOUT DATASET
         L     R05,APDE
         USING DSPDE,R05
         BAL   R14,QUAL            ADD QUALIFIERS AND SET-UP TEXT UNIT
         SPACE
*   TERMINAL ALLOCATION FLAG MAY BE SET BY QUALIFY S/R
         SPACE
         TM    AFLAG1,ATERM        TEST FOR TERMINAL ALLOCATION
         BO    ALLC0300            GO AND ALLOCATE A TERMINAL DATASET
         MVC   TUDSN(4),=X'00020001'
         LA    R00,TUDSN
         LA    R06,4(0,R06)        POINT TO NEXT TEXT UNIT PTR
         ST    R00,0(0,R06)
         MVI   AMBRNAME,C' '       CLEAR MEMBER NAME FOR DSAB SEARCH
         MVC   AMBRNAME+1(7),AMBRNAME
         TM    MBRFLG,X'80'        Q... MEMBER GIVEN?
         BZ    ALLC0030            A... NO
         SPACE
*    SET UP TEXT UNIT FOR THE MEMBER
         SPACE
         MVC   TUMBR(14),=X'0003000100084040404040404040'
         LH    R14,MBRLEN          LOAD THE LENGTH
         BCTR  R14,0
         L     R15,MBRPT
         MVC   TUMBR+6(0),0(R15)
         EX    R14,*-6
         MVC   AMBRNAME,TUMBR+6    COPY MEMBER FOR DSAB SEARCH
         LA    R00,TUMBR
         LA    R06,4(0,R06)        POINT TO NEXT TEXT UNIT PTR
         ST    R00,0(0,R06)
ALLC0030 DS    0H
         SPACE 2
* NOW DSN AND MEMBER ARE SET UP. CAN SEARCH FOR EXISTING ALLOCATION
         SPACE 1
         BAL   R14,SCHDSABQ        GO AND SEARCH DSAB QUEUE
         B     ALLC0600            BRANCH IF FOUND
         SPACE 2
         TM    PSDFLG,X'80'        Q... PASSWORD?
         BZ    ALLC0040            A... NO
         MVC   TUPSD(4),=X'00500001' SET CODE, NUMBER
         LH    R14,PSDLEN          LOAD THE LENGTH
         STH   R14,TUPSD+4         STORE LENGTH IN TEXT UNIT
         BCTR  R14,0
         L     R15,PSDPT
         MVC   TUPSD+6(0),0(R15)
         EX    R14,*-6
         LA    R00,TUPSD
         LA    R06,4(0,R06)        POINT TO NEXT TEXT UNIT PTR
         ST    R00,0(0,R06)
ALLC0040 DS    0H
         OC    AUNIT,AUNIT
         BZ    ALLC0050            BRANCH IF UNIT NOT GIVEN
         MVC   TUUNIT(6),=X'001500010008' SET TU FOR UNIT
         MVC   TUUNIT+6(8),AUNIT    COPY UNIT NAME
         LA    R00,TUUNIT
         LA    R06,4(0,R06)        POINT TO NEXT TEXT UNIT PTR
         ST    R00,0(0,R06)
ALLC0050 DS    0H
         MVC   TUDISP(7),=X'00040001000108' DISP=SHR
         TM    AFLAG1,ASHR         CORRECT?
         BO    ALLC0055             YES
         MVI   TUDISP+6,X'04'      DISP=NEW
         TM    AFLAG1,ATEMP+AMOD   CORRECT?
         BNZ   ALLC0055
         MVI   TUDISP+6,X'01'      DISP=OLD
ALLC0055 DS    0H
         LA    R00,TUDISP
         LA    R06,4(0,R06)        POINT TO NEXT TEXT UNIT PTR
         ST    R00,0(0,R06)
         OC    AVOL,AVOL
         BZ    ALLC0060            BRANCH IF VOL NOT GIVEN
         MVC   TUVOL(6),=X'001000010006' SET TU FOR VOLUME SERIAL NO
         MVC   TUVOL+6(8),AVOL     COPY VOLUME SERIAL NUMBER
         LA    R00,TUVOL
         LA    R06,4(0,R06)        POINT TO NEXT TEXT UNIT PTR
         ST    R00,0(0,R06)
ALLC0060 DS    0H
         SPACE
*       INDICATE DSORG IS TO BE RETURNED
         SPACE
         MVC   TUDSORG(6),=X'005700010002'
         LA    R00,TUDSORG
         LA    R06,4(0,R06)        POINT TO NEXT IN LIST
         ST    R00,0(0,R06)
         B     ALLC0500
         SPACE 3
ALLC0100 DS    0H      ALLOCATE A DUMMY DATASET
         MVC   TUDMY(6),=X'00240000' SET TEXT UNIT FOR DUMMY DSET
         LA    R00,TUDMY
         LA    R06,4(0,R06)        POINT TO NEXT IN LIST
         ST    R00,0(0,R06)
         B     ALLC0500
         SPACE 3
ALLC0200 DS    0H      ALLOCATE A SYSOUT DATASET
         MVC   TUSOUT(6),=X'001800010001' SET TEXT UNIT FOR SYSOUT
         MVC   TUSOUT+6(1),ASOUTC  SYSOUT CLASS
         LA    R00,TUSOUT
         LA    R06,4(0,R06)        POINT TO NEXT IN LIST
         ST    R00,0(0,R06)
         B     ALLC0500
ALLC0300 DS    0H      ALLOCATE THE TERMINAL
         MVI   TUTERM+1,X'28'      INDICATE DSORG REQD
         LA    R00,TUTERM
         LA    R06,4(0,R06)        POINT TO NEXT IN LIST
         ST    R00,0(0,R06)
         B     ALLC0500
ALLC0500 DS    0H      SET FINAL PARAMTERS FOR ALL ALLOCATIONS
         OC    ADDNAME,ADDNAME     Q... DDNAME SUPPLIED?
         BZ    ALLC0510            A... NO
ALLC0505 DS    0H
         MVC   TUDDN(6),=X'000100010008'  SET CODE, NUM, LEN
         MVC   TUDDN+6(8),ADDNAME
         LA    R00,TUDDN
         B     ALLC0520
ALLC0510 DS    0H         REQUEST RETURN OF DDNAME
         MVC   TURETDDN(6),=X'005500010008'  SET CODE, NUM, LEN
         MVC   TURETDDN+6(8),=CL8' '
         LA    R00,TURETDDN
ALLC0520 DS    0H
         LA    R06,4(0,R06)        POINT TO NEXT TEXT UNIT
         ST    R00,0(0,R06)
         OC    ABLKSIZ,ABLKSIZ     Q... BLOCK SIZE SUPPLIED?
         BZ    ALLC0530            A... NO
         MVC   TUBLKSI(6),=X'003000010002'
         MVC   TUBLKSI+6(2),ABLKSIZ COPY BLOCK SIZE
         LA    R00,TUBLKSI
         LA    R06,4(0,R06)        POINT TO NEXT TEXT UNIT
         ST    R00,0(0,R06)
ALLC0530 DS    0H
         TM    AFLAG1,AMOD         CATALOG IT?
         BZ    ALLC0540            A... YES
         MVC   TUCATLG(7),=X'00050001000102'
         LA    R00,TUCATLG
         LA    R06,4(0,R06)        POINT TO NEXT TEXT UNIT
         ST    R00,0(0,R06)
ALLC0540 DS    0H
         MVI   0(R06),X'80'        MARK END OF TEXT UNIT LIST
         LA    R01,S99RBPTR
         MVI   S99VERB,1           SET DSNAME ALLOCATION
SVC99    DYNALLOC
         LTR   R15,R15
         BNZ   ALLC0800            BRANCH IF ALLOC'N FAILED
ALLC0600 DS    0H         ALLOCATION SUCCESSFUL: VALIDATE DSORG
         TM    AFLAG1,ASOUT+ATERM  SKIP IF TERMINAL OR SYSOUT
         BNZ   ALLC0900
         NI    TUDSORG+6,X'FE'     REMOVE UNMOVABLE BIT
         TM    AFLAG1,APDS         IF PDS ALLOCATION REQUEST
         BO    ALLC0730              PROHIBIT MEMBER NAMES
         TM    MBRFLG,X'80'
         BZ    ALLC0720
         CLC   =X'0200',TUDSORG+6  Q... PARTITIONED?
         BE    ALLC0900            A... YES
         CLC   =X'0000',TUDSORG+6  Q... UNDEFINED?
         BE    ALLC0900            A... YES
         LA    R15,MSG1
         B     ALLC0745
ALLC0720 DS    0H
         CLC   =X'4000',TUDSORG+6  Q... SEQUENTIAL?
         BE    ALLC0900            A... YES
         CLC   =X'0000',TUDSORG+6  Q... UNDEFINED?
         BE    ALLC0900            A... YES
         LA    R15,MSG2
         B     ALLC0745
ALLC0730 DS    0H     PDS ALLOCATION REQUEST
         TM    MBRFLG,X'80'
         BZ    ALLC0740
         LA    R15,MSG4  ERROR MSG ABOUT PDS MBR AND JOL LIBRARY
         B     ALLC0745
ALLC0740 DS    0H
         CLC   =X'0200',TUDSORG+6  Q... PARTITIONED?
         BE    ALLC0900            A... YES
         LA    R15,MSG5 ERROR MSG ABOUT SDS AND JOL LIBRARY
ALLC0745 DS    0H
         ST    R15,OLD1#1
         LA    R15,1
         ST    R15,OLD1
         PUTLINE MF=(E,IOPL),PARM=IOPB,                                C
               OUTPUT=(OLD1,TERM,SINGLE,INFOR)
         B     ALLC0810
ALLC0800 DS    0H
         BAL   R14,S99MSG
ALLC0810 DS    0H
         XC    IOECB,IOECB
         XC    IOPB,IOPB
         STACK PARM=IOPB,DELETE=ALL,MF=(E,IOPL)
         LA    R15,8               INDICATE AN ERROR OCCURRED
ALLC0900 LM    R02,R14,ALLCREGS
         XC    APT(APTL),APT        CLEAR FOR NEXT CALL
         BR    R14
         DROP  R05
         TITLE '&TITLE SVC99 REQUEST-BLK INITIALISE'
INITS99R DS    0H
         XC    S99RB(20),S99RB
         MVI   S99RBLN,20          SET RB LEN FIELD
         LA    R15,S99TUPL
         ST    R15,S99TXTPP        STORE TEXT UNIT LIST ADDRESS
         LA    R15,S99RB
         ST    R15,S99RBPTR        LOAD RB ADDRESS IN PARAM LIST
         OI    S99RBPTR,X'80'      MARK END OF LIST
         XC    TUAREA(TUAREAL),TUAREA CLEAR ALL TEXT UNITS
         XC    TUAREA2(TUAREAL2),TUAREA2 CLEAR ALL TEXT UNITS PF 1983
         BR    R14
         TITLE '&TITLE SUBROUTINE TO SEARCH THE DSAB QUEUE'
SCHDSABQ ST    R14,SDQRETN         SAVE THE RETURN ADDRESS
         L     R14,CVTPTR          LOAD CVT ADDRESS
         L     R14,0(0,R14)        TCB WORDS
         L     R14,4(0,R14)        MY TCB ADDRESS
         USING TCB,R14
         L     R14,TCBJSCB         MY JSCB ADDRESS
         DROP  R14
         USING IEZJSCB,R14
         L     R14,JSCDSABQ        DSAB Q
         DROP  R14
         USING QDB,R14             DSAB Q DESCRIPTOR BLOCK
         ICM   R15,15,QDBNELMS     ARE THERE ANY?
         BZ    SDQ090              A... NO
         L     R15,QDBFELMP        LOAD DSAB ADDRESS
         USING DSAB,R15
SDQ005   DS    0H
         L     R01,DSABTIOT        POINT TO TIOT ENTRY
         CLC   =CL8' ',4(R01)      BLANK DDNAME?
         BE    SDQ020              IF SO, NOT A MATCH
         ICM   R01,7,12(R01)       POINT TO JFCB
         USING JFCB-16,R01
         CLC   JFCBDSNM,ADSNAME    Q... SAME DSNAME?
         BNE   SDQ020              A... NO
         NI    AFLAG1,FF-AMOD      SAME DSN: CANNOT B NEW
         CLC   JFCBELNM,AMBRNAME   Q... SAME MEMBER NAME?
         BNE   SDQ020              A... NO
         MVC   TUDSORG+6(2),DSABORG   COPY DSORG
         DROP  R01
         L     R01,DSABTIOT        POINT TO TIOT ENTRY
         CLI   4(R01),C'$'         Q... JOL DDNAME?
         BE    SDQ010              A... YES: DO NOT RETURN IT FOR
*                                   A GENERAL REQUEST
         TM    DSABFLG1,DSABDCAT+DSABPCAT+DSABCATM+DSABNUSE
         BNZ   SDQ010              DO NOT RETURN IT IF:
*                                    DYNAMICALLY CONCATENATED
*                                    PERMANENTLY CONCATENATED
*                                    MEMBER OF CONCATENATED GROUP
*                                    IN USE
         TM    DSABFLG2,DSABOPEN   DO NOT IT RETURN IF OPEN
         BNZ   SDQ010
         MVC   TURETDDN+6(8),4(R01) OTHERWISE ANY WILL DO
         MVC   TURETDDN+4(2),=H'8' SET DDNAME LENGTH
         B     SDQ080              OK TO LEAVE
SDQ010   DS    0H
         CLC   ADDNAME,4(R01)  Q... REQUESTED DDNAME?
         BE    SDQ080          A... YES: RETURN
SDQ020   DS    0H        THIS ONE DID NOT MATCH:
         CLM   R15,7,QDBLELMP+1    Q... WAS THAT THE LAST?
         BE    SDQ090              A... YES IT WAS: EXIT NOT FOUND
         L     R15,DSABFCHN        POINT TO THE NEXT
         B     SDQ005              AND TRY AGAIN
SDQ080   L     R14,SDQRETN         RETURN: FOUND
         SLR   R15,R15
         BR    R14
SDQ090   L     R14,SDQRETN         RETURN: FOUND
         SLR   R15,R15
         B     4(R14)
         DROP  R15
         TITLE '&TITLE DATASET QUALIFY SUBROUTINE'
QUAL     DS    0H
         TM    AFLAG1,ATERM
         BNZR  R14
         STM   R02,R14,QUALREGS
         MVI   TUDSNENT+2,C' '     CLEAR THE DSNAME
         MVC   TUDSNENT+3(43),TUDSNENT+2
         USING DSPDE,R05
         L     R03,DSNPT           LOAD DSNAME ADDRESS
         CLI   0(R03),C'&&'        Q... TEMPORARY DATASET?
         BNE   QUAL0010            A... NO
         OI    AFLAG1,ATEMP        YES: SET FLAG
QUAL0010 DS    0H
         SLR   R15,R15             CLEAR R15 (WILL CONTAIN TU LEN)
         TM    DSFLG,X'40'         Q... PREFIX IT?
         BO    QUAL0020            A... NO
         TM    AFLAG1,ATEMP        Q... TEMP?
         BO    QUAL0020            A... YES
         AIF   ('&PREFOUT' EQ 'USERPREFIX').Q010
         AIF   ('&PREFOUT' EQ 'SYSPREF').Q010
         TM    AFLAG1,AMOD         Q... DATASET TO BE WRITTEN?
         BZ    QUAL0015            A... NO
         ICM   R15,1,PSCBUSRL      LOAD USERID LENGHT
         BZ    QUAL0015            BRANCH IF NONE: USE PREFIX
         MVC   TUDSNENT+2(7),PSCBUSER  MOVE USERID
         B     QUAL0018
QUAL0015 DS    0H
.Q010    ANOP
         ICM   R15,1,UPTPREFL      Q... A PREFIX AVAILABLE?
         BZ    QUAL0020            A... NO
         MVC   TUDSNENT+2(7),UPTPREFX MOVE PREFIX
         AIF   ('&PREFOUT' EQ 'USERPREFIX').Q020
         AIF   ('&PREFOUT' EQ 'SYSPREF').Q020
QUAL0018 DS    0H
.Q020    ANOP
         LA    R01,TUDSNENT+2(R15) ADDRESS NEXT BYTE
         MVI   0(R01),C'.'         INSERT PERIOD IN DSNAME
         LA    R15,1(0,R15)        COUNT IT
QUAL0020 DS    0H
         SLR   R14,R14
         ICM   R14,3,DSLEN         LOAD LENGTH OF DSNAME SUPPLIED
         BZ    QUAL0040
         BCTR  R14,0
         CLI   0(R03),C'*'         Q... TERMINAL REQUEST
         BNE   QUAL0030            A... NO
         OI    AFLAG1,ATERM        YES: SET FLAG
         MVI   TUDSNENT,C'*'       SHOW CALLER TERMINAL ALLOCATION
         B     QUAL0090              AND EXIT
QUAL0030 DS    0H
         LA    R01,TUDSNENT+2(R15) ADDRESS NEXT BYTE
         EX    R14,*+4             MOVE IT
         MVC   0(0,R01),0(R03)
         LA    R15,2(R14,R15)      COUNT THE LENGTH
QUAL0040 DS    0H
         BCTR  R15,0
         TM    DSFLG,X'40'         Q... SUFFIX IT?
         BO    QUAL0050            A... NO
         TM    AFLAG1,ATEMP        Q... TEMP?
         BO    QUAL0050            A... YES
         OC    ASUFFIX,ASUFFIX     Q... A SUFFIX GIVEN?
         BZ    QUAL0050            A... NO
         LA    R14,TUDSNENT+2(R15) LOAD ADDRESS OF NEXT BYTE
         AIF   ('&VSAMCAT' EQ 'NO').NVSAM01
         LR    R01,R14             ADDRESS END OF NAME
         SH    R01,ASUFFIXL        ADDRESS OF PROBABLE START OF SUFFIX
         CLC   ASUFFIX,0(R01)      Q... ALREADY QUALIFIED?
         BE    QUAL0050            A... YES
.NVSAM01 ANOP
         MVC   0(9,R14),ASUFFIX    COMPLETE QUALIFICATION
         AH    R15,ASUFFIXL        COMPUTE REST OF LENGTH
QUAL0050 STH   R15,TUDSNENT        STORE IN TEXT UNIT
         LA    R01,TUDSNENT
         BAL   R14,CATSCH          CALL CATALOG SEARCH
QUAL0090 DS    0H
         MVC   ADSNAME,TUDSNENT+2  COPY DSNAME FOR DSAB SEARCH
         LM    R02,R14,QUALREGS
         BR    R14
         TITLE '&TITLE CATALOG SEARCH SUBROUTINE'
*  NOTE
*   (1) IS THE ADDRESS OF THE DSNAME TO BE OPERATED ON
*          THERE MUST BE AN EIGHT BYTE PAD AREA AT ITS END
         SPACE
*  UPON RETURN
*   IF DSNAME FOUND IN THE CATALOGUE
*    THE DSNAME MAY BE CHANGED (IF TOO LONG IT IS SHORTENED)
*    APTVOL CONTAINS VOLUME SERIAL NUMBER ACCORDING TO THE CATALOGUE
*    APTUNIT CONTAINS THE ADDRESS OF THE UNIT CONTAINING THE VOLUME
*   IF DSNAME NOT FOUND
*    (R15) REFLECTS THIS FACT
         SPACE
CATSCH   ST    R14,CATRET
         ST    R01,CATDSPT         SAVE ADDRESS OF DSNAME
         SLR   R14,R14             CLEAR REGISTER
         LA    R15,2(0,R01)        ADDRESS OF DSNAME
         SLR   R00,R00             A ZERO ENTRY IN LIST
         LA    R01,CATWORK         ADDRESS OF WORK AREA
         STM   R14,R01,CATPARMS    STORE LIST
         MVI   CATPARMS,X'44'      SET FLAGS
         LOCATE CATPARMS           ISSUE THE REQUEST
         STC   R15,CATRC           STORE RETURN CODE
         STC   R00,CATFLG          AND REASON
         CH    R15,=H'12'
         BL    CS070               BR IF  OK, NO CVOL OR NOT CAT
         BH    CS010               DSN TOO LONG
         SPACE
*  SPECIFIED DSNAME IS TOO SHORT AND NEEDS A FURTHER QUALIFIER
*     HOWEVER, THAT IS THE JOL USER'S PROBLEM AT PRESENT
         B     CS070
         SPACE
CS010    DS    0H
         MVI   CATRC,0             INDICATE DATASET EXISTS
         SPACE
*   THE NAME PRESENTED IS LONGER THAN AN EXISTING DSNAME
*    TO HELP THE USER, IT IS TO BE SHORTENED BY REMOVING THE
*       LAST QUALIFIER.
         SPACE
         L     R14,CATDSPT         ADDRESS DSNAME
         LH    R15,0(0,R14)        LOAD DSNAME LENGTH
CS020    DS    0H
         LA    R01,1(R15,R14)      ADDRESS OF END OF DSN TEXT
         CLI   0(R01),C'.'         Q... PERIOD?
         MVI   0(R01),C' '         BLANK IT ANYWAY
         BE    CS030               A... YES, IT IS A PERIOD
         BCT   R15,CS020 CONTINUE THE SCAN
         B     CSBAD               ERROR EXIT
CS030    DS    0H                  DSNAME IS NO SHORTENED
*        LH    R00,0(0,R14)        LOAD LENGTH DSNAME
*        SR    R00,R15             COMPUTE NEW LENGTH
         STH   R15,0(0,R14)        STORE THE NEW LENGTH
CS070    DS    0H
         CLI   CATRC,0
         BNE   CS095
         SPACE
*   IF THE DATASET IS CATALOGUED, THEN SAVE ANOTHER LOCATE BY
*     DYNAMIC ALLOCATION BY COPYING VOLUME INFO
         SPACE
         NI    AFLAG1,X'FF'-AMOD   TURN OFF MOD FLAG IF DS EXISTS
         CLI   CATWORK+1,1         Q... JUST ONE VOLUME?
         BNE   CS095               A... NO: I DID NOT SEE IT
         MVC   AVOL,CATWORK+6      COPY SERIAL NO TO ALLOC PARMS
         SPACE
*   NOW FIND THE UNIT ADDRESS IF THE VOLUME IS MOUNTED
*    AND SET THAT UP TOO.
*
* BEFORE DOING SO, CHECK IF WE ARE RUNNING UNDER XA.              84016
*  IF SO, BYPASS THE CHECKING OF THE UCB TEMPORARILY.             84016
         L     R15,CVTPTR                                         84016
         TM    CVTDCB-CVT(R15),X'80' XA SYSTEM?                   87127
         BO    CS095               YES, SO IGNORE UCB LOOK UP     84016
         AIF   (&MVSXA).NOUCB
         SPACE
         L     R15,CVTPTR          ADDRESS CVT
         L     R15,CVTILK2-CVT(,R15) ADDRESS OF UCB TABLE
         SLR   R14,R14
CS080    ICM   R14,3,0(R15)        LOAD UCB ADDRESS
         LA    R15,2(,R15)         POINT TO NEXT ENTRY IN TABLE
         BZ    CS080               BRANCH IF NOT FILLED IN
         C     R14,=A(X'FFFF')     Q... END OF TABLE?
         BNL   CS090               A... YES
*  REGISTER 14 NOW POINTS TO A UNIT CONTROL BLOCK
*   NOW CHECK THE VOLUME SERIAL NUMBER
         CLC   AVOL,X'01C'(R14)    Q... CORRECT VOLUME?
         BNE   CS080               A... NO: CHECK NEXT UCB
         MVI   AUNIT,C' '          CLEAR UNIT NAME
         MVC   AUNIT+1(L'AUNIT-1),AUNIT
         MVC   AUNIT(3),X'00D'(R14) COPY UNIT ADDRESS FROM UCB
         B     CS095
CS090    DS    0H                  THE UNIT ADDRESS WAS NOT FOUND
         XC    AVOL,AVOL             SO CLEAR THE VOLUME SERIAL TOO
* (ALLOCATION PROBLEMS FOR MOUNT-AUTHORISED USERS IF THIS IS NOT DONE)
.NOUCB   ANOP
CS095    DS    0H
         L     R14,CATRET
         BR    R14
         SPACE 2
CSBAD    DC    H'0',C'CATALOG SEARCH BUG'
         TITLE '&TITLE TIOT SCAN SOUBROUTINE'
* THIS SUBROUTINE SEARCHES THE TIOT FOR A SPECIFIED DDNAME
*  WHOSE ADDRESS IS PASSED IN REGISTER 1
         SPACE
SCHTIOT  DS    0H
         L     R15,X'010'          ADDRESS OF CVT
         L     R15,0(0,R15)        TCB WORDS
         L     R15,4(,R15)         ADDRESS OF MY TCB
         SLR   R00,R00
         L     R15,TCBTIO-TCB(,R15) TIOT ADDRESS
ST010    DS    0H
         CLC   28(8,R15),0(R01)    Q... DDNAME MATCH?
         BER   R14                 A... YES:RETURN
         IC    R00,24(,R15)        LENGTH OF THIS ENTRY
         AR    R15,R00
         LTR   R00,R00             Q... END OF TIOT?
         BNZ   ST010               A... NO: CHECK THE NEXT ENTRY
         CLI   *,0                 SET CC TO SHOW NOT EQUALS
         BR    R14
         TITLE '&TITLE DYNAMIC ALLOCATION ERROR MESSAGE ROUTINE'
S99MSG   ST    R14,S99MRET