         MACRO
&NAME    CHNGDCB
&NAME    LA    R9,&SYSLIST(1) LOAD DCB ADDR
         CLC   DCBDDNAM,0(R5) COMPARE USERS DDNAME WITH MINE
         BNE   #&SYSNDX       NOT EQUAL SO DO NOTHING
         MVC   DCBDDNAM,8(R5) SHIFT IN ALTERNATE DD-NAME
         B     LOOP1
#&SYSNDX DS    0H
         MEND
