        MACRO
&NAME   JOLPRINT
&NAME   L     R15,UJSPRINT LOAD PRINT RTN ADDRESS
        BALR  R14,R15    BALR TO IT
        MEND
