         MACRO
&NAME    TOMASM &A
* DUMMY MACRO FOR THINGS NEEDED  FOR INTEL 808/370 SIMULATOR
* TO ALLOW 370 CODE TO RUN UNDE R TURBO DEBUGGER.
         MEND
