         MACRO
&NAME    JOLTSOCP                                                      .
               &ALIAS=,        NO ALIASES FOR THE COMMAND              .
               &CAT=YES,       SEARCH THE CATALOG                      .
               &CMDLIB='JOL40.CMDLIB', SYSTEM MACLIB                   .
               &C1=,           DEFAULT CARD1                           .
               &C2=,           DEFAULT CARD2                           .
               &C3=,           DEFAULT CARD3                           .
               &C4=,           DEFAULT CARD4                           .
               &DC='//SYSUDUMP DD  SYSOUT=X', DEFAULT DUMPCARD         .
               &DYNAMIC=NO,    DEFAULT IS JCL GENERATE                 .
               &FLAG=0,        DEFAULT FOR FLAG IS 0                   .
               &GENCB=YES,     EXPAND ALL OS MAPPING MACROES           .
               &INCLIB=JOL,    USER INCLUDE LIBRARY                    .
               &JCL=,          DEFAULT JCL DATASET                     .
               &JCLBLK=4080,   DEFAULT JCL BLOCK SIZE                  .
               &JLOAD=,        JOL LOAD LIBRARIES                      .
               &LET=(8,PROMPT), SUBMIT JCL EVEN IF ERRORS OCCURRED*    .
               &LIST=,         SYSOUT CLASS FOR COMPILED LISTINGS      .
               &OS=???,        NAME OF OPERATING SYSTEM                .
               &PCOM=YES,      PRINT COMMENTS                          .
               &PGM=$JOLCP40,  NAME OF JOL COMPILER                    .
               &PEXPAND=NO,    PRINT EXPANDED JOL MACROS               .
               &PJCL=NO,       DO NOT PRINT JCL                        .
               &PINCLUD=YES,   PRINT "INCLUDED" JOL                    .
               &PMACRO=NO,     DO NOT LIST MACROES                     .
               &POPT=NO,       DO NOT PRINT JOL OPTIONS                .
               &PRINT=$$JOL,   DEFAULT PRINT FILE (JOL.LIST)           .
               &PREFOUT=USERPREFIX, USER CURRENT PREFIX FOR PRINT,JCL  .
               &PRTBLK=4080,   DEFAULT PRINT FILE BLOCK SIZE           .
               &SUB=NO,        SUBMIT JCL EVEN IF ERRORS OCCURRED*     .
               &SYMS='TSOCLASS=X', SAY THIS TO JOL                     .
               &SYNCHK=NO,     NO SYNTAX CHECKING (CREATE AND EXECUTE) .
               &TERM=YES,      DEFAULT FOR TERM IS TERM                .
               &TEST=NO,       DO NOT EXECUTE GENERATE JCL             .
               &TSO=NO,        DEFAULT IS JCL GENERATE                 .
               &UNITJCL=SYSDA, UNIT NAME FOR THE GENERATED JCL         .
               &UNITWRK=VIO,   UNIT NAME FOR $$JWRK1 AND $$JWRK2       .
               &VSAMCAT=YES    YES IF VSAM CATALOGS ARE IN USE
.* A NOTE TO THE UNSUSPECTING MAINTENANCE PROGRAMMER
.* THE RULES FOR FINDING DATASET ALLOCATIONS ON MVS AND OSIV/F4
.*   TCBJSCB POINTS TO JSCB
.*   JSCDSABQ POINTS TO QDB
.*   QDBFELMP POINTS TO FIRST DSAB
.*   QDBLELMP POINTS TO LAST DSAB
.*   DSABFCHN POINTS TO THE NEXT DSAB
.*   DSABBCHN POINTS TO THE PREVIOUS DSAB
.*   DSABTIOT POINTS TO THE TIOT ENTRY
.*   TIOT+C POINTS TO JFCB IN SWA (NOTE 3 BYTES FROM +C, NOT 4)
.*
.*   WHY ALL THIS BOTHER?
.*
.*    DSAB CONTAINS USEFUL FLAGS SUCH AS IN-USE ATTRIBUTE ETC
.*
.*  TO FIND THE JOB ACCOUNTING INFO
.*   1) FIND CURRENT TCB
.*   2) LOAD JSCB ADDRESS FROM TCBJSCB
.*   3) LOAD JCT ADDRESS FROM JSCBJCT
.*   4) LOAD ACT ADDRESS FROM JCT+X'38'
.*   5) ACT+X'1E' CONTAINS NUMBER OF ACCOUNTING FIELDS
.*   6) ACCOUNTING FIELDS START AT ACT+X'20'
.*      THESE HAVE THE FOLLOWING FORMAT:
.*     A) FIRST BYTE IS THE LENGTH EXCLUSIVE OF THIS BYTE
.*     B) SECOND BYTE IS THE FIRST IN THE STRING
.*
.*   7) ACT FOR STEP IS FOUND VIA TCBJSCB, JSCBSCT, SCT+X'30'
.*
.*
.* ABOUT THE MACRO KEYWORDS:
.*
.* ALIAS       SPECIFIES THE ALTERNATIVE NAMES FOR THE GENERATED
.*               COMMAND PROCESSOR. THESE ARE ESTABLISHED WITH THE
.*               LINKAGE EDITOR ALIAS STATEMENT, GENERATED DURING
.*               THIS ASSEMBLY. IF THIS COMMAND PROCESSOR IS
.*               RE-LINKED LATER, YOU WILL NEED TO SUPPLY YOUR OWN
.*               ALIAS STATEMENTS.
.*
.* CMDLIB      SPECIFIES THE DEFAULT LIBRARIES TO BE ASSOCIATED WITH
.*               THE COMMAND PROCESSOR'S MACLIB KEYWORD
.*
.* DYNAMIC     SPECIFIES THAT JOL USES THE DYNAMIC ALLOCATION ROUTINES
.*               INSTEAD OF JCL.
.*
.* INCLIB      SPECIFIES THE DEFAULT LIBRARIES TO BE ASSOCIATED WITH
.*               THE COMMAND PROCESSOR'S INCLUDE KEYWORD
.*
.* JCL         SPECIFIES THE DEFAULT DATASET NAME FOR THE GENERATED
.*              JCL. IF OMITTED, THE JCL IS WRITTEN TO A TEMPORARY
.*              DATASET AND CANNOT BE ACCESSED (EASILY) BY THE
.*              TERMINAL USER. IF IT IS SPECIFIED THE JCL CANNOT
.*              BE WRITTEN TO A TEMPORARY DATASET.
.*
.* JLOAD       SPECIFIES THE JOL LOAD LIBRARIES. THIS CANNOT BE
.*              OVER-RIDDEN AT EXECUTION TIME.
.*
.* LET         SPECIFIES WHETHER OR NOT THE LET COMPILER OPTION IS TO
.*              BE SELECTED BY DEFAULT. IF THE COMPILER RETURNS A
.*                RETURN CODE GREATER THAN THE VALUE SPECIFIED BY
.*                THIS KEYWORD, HE  IS ASKED WHETHER THE JOB SHOULD BE
.*                 SUBMITTED. HOWEVER, IF SUBMIT IS SPECIFIED, THE
.*                 QUESTION IS NOT ASKED, AND THE JOB IS SUBMITTED.
.*
.* LIST        SPECIFIES THE DEFAULT SYSOUT CLASS FOR JOL COMPILER
.*              MESSAGES FOR WHEN THE TERMINAL USER SELECTS THE
.*              LIST OPTION.
.*
.* OS          SPECIFIES THE VERSION OF OS FOR WHICH THE COMMAND
.*              PROCESSOR IS BEING GENERATED. THIS IS USED DURING
.*              ASSEMBLY TO SELECT PARTICULAR MAPPING MACROES.
.*             VALID SPECIFICATIONS ARE MVS AND OSIV/F4.
.*
.* PEXPAND     SPECIFIES WHETHER OR NOT THE PEXPAND OPTION SHOULD
.*              BE SELECTED BY DEFAULT.
.*
.* PGM         NAMES THE JOL COMPILER.
.*
.* PINCLUD     SPECIFIES WHETHER OR NOT THE PINCLUDE OPTION SHOULD
.*              BE SELECTED BY DEFAULT.
.*
.* PMACRO      SPECIFIES WHETHER OR NOT THE PMACRO OPTION SHOULD BE
.*               SELECTED BY DEFAULT.
.*
.* PRINT       SPECIFIES THE DEFAULT PRINT DATASET FOR THE JOL COMPILER
.*              MESSAGES.
.*             IT MAY NAME A DATASET OR BE AN ASTERISK (TO THE
.*              TERMINAL).
.*             IF PRINT='NULLFILE' IS SPECIFIED, THEN NOPRINT IS
.*              THE DEFAULT PRINT KEYWORD
.*
.* SUB         SPECIFIES WHETHER OR NOT THE LET COMPILER OPTION IS TO
.*               BE SELECTED BY DEFAULT. JCL GENERATED WILL BE
.*              SUBMITTED WITHOUT ASKING THE TERMINAL USER, EVEN IF
.*               ERRORS ARE DETECTED BY THE JOL COMPILER. THIS OPTION
.*               FORCES THE USE OF THE LET OPTION.
.*
.* SYMS        SPECIFIES THE DEFAULT VALUE FOR THE COMMAND PROCESSOR'S
.*              SYMS KEYWORD.
.*
.* SYSDA       SPECIFIES THE UNIT NAME TO BE USED FOR TEMPORARY
.*              DATASET ALLOCATIONS
.*
.* TERM        SPECIFIES WHETHER OR NOT THE TERMINAL OPTION SHOULD
.*              BE SELECTED BY DEFAULT.
.*
.* TEST        SPECIFIES WHETHER OR NOT THE TEST OPTION SHOULD BE
.*              SELECTED BY DEFAULT
.*             THE TEST OPTION RESULTS IN THE JOL COMMAND ALWAYS ASKING
.*              WHETHER TO SUBMIT THE JCL GENERATED BY THE JOL COMPILER
.*
.* TSO         SPECIFIES THAT JOL USES THE DYNAMIC ALLOCATION ROUTINES
.*               AND RUNS THE JOB DIRECTLY UNDER TSO.
.*
.* VSAMCAT     SPECIFIES WHETHER VSAM USER CALALOGUES ARE IN USE IN THE
.*               SYSTEM. IF "VSAMCAT=NO" IS SPECIFIED WHEN VSAM
.*               CATALOGUES ARE TO BE USED TO LOCATE USER DATASETS,
.*               THE DATASET QUALIFY ROUTINE IS LIKELY NOT TO RESOLVE
.*               DATASET NAMES CORRECTLY.
.*             IF VSAM CATALOGUES  ARE NOT IN USE, THE DATASET
.*             QUALIFY ROUTINE CAN CORRECTLY RESOLVE SOME DATASET NAMES
.*              WHICH IT CANNOT OTHERWISE RESOLVE.
.*
.* VALID VALUES FOR TERM, PINCLUD, TEST, PMACRO, PEXPAND, AND VSAMCAT
.*   ARE "YES" AND "NO".
.* LET MAY BE  USED TO SPECIFY "YES", "NO", OR A NUMERIC VALUE.
.*
.*  IF ANY KEYWORDS ARE INCORRECTLY SPECIFIED, EDITING CONTINUES
.*    BUT THE MACRO WILL NOT EXPAND.
.*
.* BE WARNED.
.*
.*
.*
         ACTR  400000        SEEMS TO REQUIRE MORE THAN THE DEFAULT
         GBLB  &UJT
         LCLA  &A,&A2
         LCLA  &LETVAL
         LCLB  &B,&B1          FLAG
         LCLB  &ERR            ERROR FLAG
         GBLB  &MVS,&F4,&X8
         LCLB  &JCSWAS
&JCSWAS  SETB  1
&UJT     SETB  1
         LCLC  &LETPR
         LCLC  &C,&CX,&WRKUNIT,&PRE,&SOUT
         LCLC  &PE,&PI,&PM,&LT,&SB,&TST
         LCLC  &FL,&CT,&PJ,&PO,&PC,&SYNT
         LCLC  &OSTYPE
         LCLC  &TITLE
&LETPR   SETC  'PROMPT'            DEFAULT FOR SECOND LET SUBFIELD
&TITLE   SETC  'JOL/TSO INTERFACE       '
&NAME    TITLE '&TITLE MAINLINE CODE'
         AIF   ('&TEST' EQ 'YES' OR '&TEST' EQ 'NO').TS010
&ERR     SETB  1
         MNOTE 12,'INVALID TEST VALUE &TEST'
.TS010   ANOP
         AIF   ('&PINCLUD' EQ 'YES' OR '&PINCLUD' EQ 'NO').TS020
&ERR     SETB  1
         MNOTE 12,'INVALID VALUE FOR PINCLUD &PINCLUD'
.TS020   ANOP
         AIF   ('&PMACRO' EQ 'YES' OR '&PMACRO' EQ 'NO').TS030
&ERR     SETB  1
         MNOTE 12,'INVALID VALUE FOR PMACRO &PMACRO'
.TS030   ANOP
         AIF   ('&PEXPAND' EQ 'YES' OR '&PEXPAND' EQ 'NO').TS035
&ERR     SETB  1
         MNOTE 12,'INVALID VALUE FOR PEXPAND &PEXPAND'
.TS035   ANOP
         AIF   ('&TERM' EQ 'YES' OR '&TERM' EQ 'NO').TS040
&ERR     SETB  1
         MNOTE 12,'INVALID VALUE FOR TERM &TERM'
.TS040   ANOP
         AIF   (K'&UNITJCL LT 9).TS045 IF LT 9 CHARS, THEN OKAY
&ERR     SETB  1
         MNOTE 12,'INVALID UNIT NAME:-UNITJCL=&UNITJCL'
.TS045   ANOP
         AIF   (K'&UNITWRK LT 9).TS050 IF LT 9 CHARS, THEN OKAY
&ERR     SETB  1
         MNOTE 12,'INVALID UNIT NAME:-UNITWRK=&UNITWRK'
.TS050   ANOP
         AIF   (K'&NAME GT 3 AND K'&NAME LT 9).TS060
&ERR     SETB  1
         MNOTE 12,'INVALID PROGRAM NAME &NAME'
.TS060   ANOP
         AIF   (K'&LIST EQ 1).TS070
&SOUT    SETC  'A'
         AIF   (K'&LIST EQ 0).TS090
&ERR     SETB  1
         MNOTE 12,'INVALID SYSOUT CLASS &LIST: TOO LONG'
         AGO   .TS090
.TS070   ANOP
&SOUT    SETC  '&LIST'
         AIF   ('&LIST' LT 'A' OR '&LIST' GT '9').TS080
         AIF   ('&LIST' GT 'I' AND '&LIST' LT 'J').TS080
         AIF   ('&LIST' GT 'R' AND '&LIST' LT 'S').TS080
         AIF   ('&LIST' GT 'Z' AND '&LIST' LT '0').TS080
         AGO   .TS090
.TS080   ANOP
         MNOTE 12,'INVALID SYSOUT CLASS &LIST: IT MAY NOT BE PRINTABLE'
&ERR     SETB  1
.TS090   ANOP
         AIF   (K'&OS LT 2).TS095
&OSTYPE  SETC  '&OS'
         AIF   ('&OS'(1,1) NE '''').TS092
&OSTYPE  SETC  '&OS'(2,K'&OS-2)
.TS092   ANOP
&X8      SETB  ('&OSTYPE' EQ 'OSIV/X8')
&F4      SETB  ('&OSTYPE' EQ 'OSIV/F4')
&MVS     SETB  ('&OSTYPE' EQ 'MVS')
         AIF   (&F4 OR &MVS OR &X8).TS100
         AIF   (T'&OS EQ 'O').TS095
         MNOTE 12,'OS=&OS IS INCORRECT: IT MUST BE OSIV/F4, OSIV /X8 OR.
                MVS'
&ERR     SETB  1
         AGO   .TS100
.TS095   ANOP
         MNOTE 12,'OS MUST BE SPECIFIED AS OSIV/F4, OSIV/X8 OR MVS'
&ERR     SETB  1
.TS100   ANOP
         AIF   ('&LET' EQ 'YES' OR '&LET' EQ 'NO').TS110
&C       SETC  T'&LET(1)
.*  MNOTE 16,'LETTYPE= &C'
         AIF   (T'&LET(1) EQ 'N').TS105
&ERR     SETB  1
         MNOTE 12,'INVALID VALUE FOR LET &LET'
         AGO   .TS110
.TS105   ANOP
&LETVAL  SETA  &LET(1)
         AIF   (N'&LET EQ 1).TS110
         AIF   ('&LET(2)' EQ 'PROMPT' OR '&LET(2)' EQ 'NOPROMPT').TS106
         MNOTE 12,'INVALID VALUE FOR LET SUBPARAMETER &LET(2)'
&ERR     SETB  1
         AGO   .TS110
.TS106   ANOP
&LETPR   SETC  '&LET(2)'
.TS110   ANOP
         AIF   ('&SUB' EQ 'YES' OR '&SUB' EQ 'NO').TS120
&ERR     SETB  1
         MNOTE 12,'INVALID VALUE FOR SUB &SUB'
.TS120   ANOP
         AIF   ('&CAT' EQ 'YES' OR '&CAT' EQ 'NO').TS130
&ERR     SETB  1
         MNOTE 12,'INVALID VALUE FOR CAT &CAT'
.TS130   ANOP
         AIF   ('&PJCL' EQ 'YES' OR '&PJCL' EQ 'NO').TS140
&ERR     SETB  1
         MNOTE 12,'INVALID VALUE FOR PJCL &PJCL'
.TS140   ANOP
         AIF   ('&POPT' EQ 'YES' OR '&POPT' EQ 'NO').TS150
&ERR     SETB  1
         MNOTE 12,'INVALID VALUE FOR POPT &POPT'
.TS150   ANOP
         AIF   ('&PCOM' EQ 'YES' OR '&PCOM' EQ 'NO').TS160
&ERR     SETB  1
         MNOTE 12,'INVALID VALUE FOR PCOM &PCOM'
.TS160   ANOP
         AIF   ('&FLAG' GE '0' AND '&FLAG' LE '5').TS170
&ERR     SETB  1
         MNOTE 12,'INVALID VALUE FOR FLAG &FLAG'
.TS170   ANOP
         AIF   ('&SYNCHK' EQ 'YES' OR '&SYNCHK' EQ 'NO').TS180
&ERR     SETB  1
         MNOTE 12,'INVALID VALUE FOR SYNCHK &SYNCHK'
.TS180   ANOP
         AIF   ('&VSAMCAT' EQ 'YES' OR '&VSAMCAT' EQ 'NO').TS190
&ERR     SETB  1
         MNOTE 12,'INVALID VALUE FOR VSAMCAT &VSAMCAT'
.TS190   ANOP
         AIF   ('&PREFOUT' EQ 'USERPREFIX').TS200
         AIF   ('&PREFOUT' EQ 'USERID').TS200
         AIF   ('&PREFOUT' EQ 'SYSUID').TS200
         AIF   ('&PREFOUT' EQ 'SYSPREF').TS200
         MNOTE 12,'INVALID VALUE FOR PREFOUT KEYWORD &PREFOUT'
&ERR     SETB  1
.TS200   ANOP
         AIF   ('&DYNAMIC' EQ 'YES' OR '&DYNAMIC' EQ 'NO').TS205
&ERR     SETB  1
         MNOTE 12,'INVALID VALUE FOR DYNAMIC &DYNAMIC'
.TS205   ANOP
         AIF   ('&TSO' EQ 'YES' OR '&TSO' EQ 'NO').TS210
&ERR     SETB  1
         MNOTE 12,'INVALID VALUE FOR TSO &TSO'
.TS210   ANOP
         AIF   (&ERR).END
&B       SETB  ('&SYNCHK' EQ 'NO')
&SYNT    SETC  (&B)'NO'.'SYNTAX'
&B       SETB  ('&PINCLUD' EQ 'NO')
&PI      SETC  (&B)'N'.'PINCLUDE'
&B       SETB  ('&CAT' EQ 'NO')
&CT      SETC  (&B)'N'.'CAT'
&B       SETB  ('&PJCL' EQ 'NO')
&PJ      SETC  (&B)'N'.'PJCL'
&B       SETB  ('&PCOM' EQ 'NO')
&PC      SETC  (&B)'N'.'PCOMM'
&B       SETB  ('&POPT' EQ 'NO')
&PO      SETC  (&B)'N'.'POPT'
&FL      SETC  '&FLAG'
&B       SETB  ('&PEXPAND' EQ 'NO')
&PE      SETC  (&B)'N'.'PEXPAND'
&B       SETB  ('&PMACRO' EQ 'NO')
&PM      SETC  (&B)'N'.'PMACRO'
&B       SETB  ('&SUB' EQ 'NO')
&SB      SETC  (&B)'N'.'SUB'
&B       SETB  ('&LET' EQ 'NO')
&LT      SETC  (&B)'N'.'LET'
&B       SETB  ('&TEST' EQ 'NO')
&TST     SETC  (&B)'N'.'TEST'
&PRE     SETC  '&NAME'(1,3)
&PRE     SETC  'UJT'
&WRKUNIT SETC  '&UNITWRK        '(1,8)
         PUNCH '         PAGE      &NAME'
&A       SETA  0
.ALIASES AIF   (&A GE N'&ALIAS).EALOOP
&A       SETA  &A+1
         AIF   (K'&ALIAS(&A) EQ 0).NAP010
         PUNCH '         ALIAS     &ALIAS(&A) '
.NAP010  AGO   .ALIASES
.EALOOP  ANOP
&NAME    CSECT
         SPACE 2
* DEFINE SYMBOLIC NAMES FOR THE GENERAL PURPOSE REGISTERS
&A       SETA  0
         SPACE
.EQ010   AIF   (&A GT 15).EQ090
&C       SETC  'R'.'&A'
         AIF   (&A GT 9).EQ020
&C       SETC  'R'.'0'.'&A'
.EQ020   ANOP
&C       EQU   &A
&A       SETA  &A+1
         AGO   .EQ010
.EQ090   ANOP
         SPACE 1
CBUFREG  EQU   R07                 REG PTS TO COMMAND BUFFER
UPTREG   EQU   R08                 REG PTS TO USER PROFILE TABLE
PSCBREG  EQU   R09                 REG PTS TO PSCB
ECTREG   EQU   R10                 REG PTS TO ECT
         SPACE 1
         USING &NAME,R15
         B     &PRE.010
         DC    AL1(&PRE.010-*),C'&NAME VERSION 4.0 ASSEMBLED AT &SYSTIM.
               E ON &SYSDATE'
         DC    C'   COPYRIGHT 1980,1981 CLARKE COMPUTER SOFTWARE,'
         DC    C'   COPYRIGHT 1987 CCS-JOL P/L'
&PRE.010 DS    0H
         STM   R14,R12,12(R13)     SAVE REGISTERS
         LR    R12,R15             LOAD
         LA    R11,2048(0,R12)
         LA    R11,2048(0,R11)     ADDRESS ANOTHER 4K
         USING &NAME,R12,R11        AND DECLARE BASE
         USING WKAREA,R13
         USING UPT,UPTREG
         USING PSCB,PSCBREG
         USING ECT,ECTREG
         DROP  R15
&C       SETC  (&MVS)'PSA'.(1-&MVS)'FLC'                         88036
         USING &C,0                                              88036
         LM    R07,R10,0(R01)      LOAD ADDRESSES OF PARAMETERS
         GETMAIN R,LV=WKALEN,SP=1  GET A WORK AREA
         ST    R13,4(0,R01)        CHAIN SAVE AREAS
         ST    R01,8(0,R13)
         LR    R13,R01
         LA    R15,WKALEN-8
         LA    R14,8(0,R13)
         SLR   R01,R01
         MVCL  R14,R00             CLEAR THE WORK AREA
         SPACE
         ST    UPTREG,IOPL
         ST    ECTREG,IOPL+4
         LA    R14,IOECB
         LA    R15,IOPB
         STM   R14,R15,IOPL+8
         SPACE
         TM    PSCBATR1,PSCBJCL    Q... JCL/JOL USER?
         BZ    &PRE.NJCL           A... NO: EXIT HIM
         SPACE
         LA    R01,MYPPL           SET UP ADDRESSABILITY FOR PPL
         USING PPL,R01
         ST    R01,PPLADDR         STORE PPL ADDR
         ST    UPTREG,PPLUPT       SET UP PARSE PARAMETER LIST
         ST    ECTREG,PPLECT
         LA    R00,MYECB
         ST    R00,PPLECB
&C       SETC  '&PRE'.'PARM'
         L     R00,=V(&C)          LOAD ADDRESS OF PARM DEFINITIONS
         ST    R00,PPLPCL
         LA    R00,PPLREPL
         ST    R00,PPLANS
         ST    R13,PPLUWA          STORE ADDRESS OF WORK AREA
         ST    CBUFREG,PPLCBUF
&C       SETC  (&X8)'KEQPARS'.(1-&X8)'IKJPARS'                   88036
         LINK  EP=&C               LINK TO PARSE ROUTINE
         LTR   R15,R15             CHECK THAT PARSE COMPLETED OK
         BZ    &PRE.100            BRANCH IF IT DID
         ST    R15,TEMP            CONVERT RETURN CODE TO HEX
         UNPK  HEXCONV(9),TEMP
         TR    HEXCONV(9),HEXTAB
         LA    R15,MSGRC
         ST    R15,OLD1#2
         MVC   MSGRC(4),=Y(6,13)
         MVC   MSGRC+4(2),HEXCONV+6
         LA    R15,MSG3
         ST    R15,OLD1#1
         LA    R15,2
         ST    R15,OLD1
         PUTLINE MF=(E,IOPL),PARM=IOPB,                                C
               OUTPUT=(OLD1,TERM,SINGLE,INFOR)
         B     &PRE.900
         USING IKJPARMD,R03
&PRE.100 L     R03,PPLREPL         ADDRESS OF REPLY
         SPACE 2
*        CLI   SYNT+1,1             IF SYNTAX CHECK
*        BNE   *+8                  THEN
*        OI    FLAG,QSUB             ASK WHETHER TO SUBMIT
         SPACE
*   ALLOCATE INPUT DATASET
         SPACE
         LA    R01,DSNAME
         ST    R01,APDE            SET POINTER TO PDE FOR DSNAME
         LA    R00,4
         STH   R00,ASUFFIXL
         MVC   ASUFFIX,=CL9'.JOL'
         OI    AFLAG1,ASHR
         MVC   ADDNAME,=CL8'$$JIN'
         BAL   R14,ALLOCATE        ALLOCATE INPUT DATASET
         LTR   R15,R15
         BNZ   &PRE.900
         CLI   TUDSNENT,C'*'       ALLOCATED TO TERMINAL?
         BNE   &PRE.110            NO
         OI    FLAG,TERMIN         SET FLAG FOR LATER
         SPACE
*   ALLOCATE TERMINAL DATASET
         SPACE
&PRE.110 DS    0H
         CLI   TERMINAL+1,1
         BNE   &PRE.120
         OI    AFLAG1,ATERM
         MVC   ADDNAME,=CL8'SYSTERM'
         BAL   R14,ALLOCATE        ALLOCATE SYSTERM
         LTR   R15,R15
         BNZ   &PRE.900
         SPACE
*   ALLOCATE INCLUDE LIBRARY
         SPACE
&PRE.120 DS    0H
         LA    R01,INCLDS          ADDRESS OF SPECIFIED LIBRARIES
         USING DSPDE,R01
         TM    DSFLG,X'80'         Q... PRESENT?
         BO    &PRE.125            A... YES
         LA    R01,=CL8'$$JINCL'
         BAL   R14,SCHTIOT         DDNAME ALREADY ALLOCATED?
         BE    &PRE.130            A... YES: DO NOT ALLOCATE AGAIN
         L     R01,=V(&PRE.INCL)    USE DEFAULTS
         DROP  R01
&PRE.125 ST    R01,APDE            SET POINTER TO PDE FOR DSNAME
         LA    R00,4
         STH   R00,ASUFFIXL
         MVC   ASUFFIX,=CL9'.JOL'
         OI    AFLAG1,ASHR
         OI    AFLAG2,APERMC  PERMANENTLY ALLOC + CONCAT
         MVC   ADDNAME,=CL8'$$JINCL'
         BAL   R14,CONCAT          ALLOCATE INCLUDE LIBRARY
         LTR   R15,R15
         BNZ   &PRE.900
         SPACE
*   ALLOCATE COMMAND LIBRARY
         SPACE
&PRE.130 DS    0H
         LA    R01,CMDDS           ADDRESS OF SPECIFIED LIBRARIES
         USING DSPDE,R01
         TM    DSFLG,X'80'         Q... PRESENT?
         BO    &PRE.135            A... YES
         LA    R01,=CL8'$$JMACRO'
         BAL   R14,SCHTIOT         DDNAME ALREADY ALLOCATED?
         BE    &PRE.138            A... YES: DO NOT ALLOCATE AGAIN
         L     R01,=V(&PRE.CMDL)    USE DEFAULTS
         DROP  R01
&PRE.135 DS    0H
         ST    R01,APDE            SET POINTER TO PDE FOR DSNAME
         LA    R00,4
         STH   R00,ASUFFIXL
         MVC   ASUFFIX,=CL9'.JOL'
         OI    AFLAG1,ASHR
         OI    AFLAG2,APERMC  PERMANENTLY ALLOC + CONCAT
         MVC   ADDNAME,=CL8'$$JMACRO'
         BAL   R14,CONCAT          ALLOCATE COMMAND LIBRARY
         LTR   R15,R15
         BNZ   &PRE.900
         SPACE
*   ALLOCATE LOAD LIBRARY
         SPACE
&PRE.138 DS    0H
         LA    R01,JOLLDDS         ADDRESS OF SPECIFIED LIBRARIES
         USING DSPDE,R01
         TM    DSFLG,X'80'         Q... PRESENT?
         BO    &PRE.139            A... YES
         LA    R01,=CL8'$$JLOAD'
         BAL   R14,SCHTIOT         DDNAME ALREADY ALLOCATED?
         BE    &PRE.140            A... YES: DO NOT ALLOCATE AGAIN
         ICM   R01,15,=V(&PRE.LOAD)    USE DEFAULTS
         WXTRN &PRE.LOAD                                         88036
         BZ    &PRE.140                  IF PRESENT
         DROP  R01
&PRE.139 DS    0H
         ST    R01,APDE            SET POINTER TO PDE FOR DSNAME
         LA    R00,5
         STH   R00,ASUFFIXL
         MVC   ASUFFIX,=CL9'.LOAD'
         OI    AFLAG1,ASHR
         OI    AFLAG2,APERMC  PERMANENTLY ALLOC + CONCAT
         MVC   ADDNAME,=CL8'$$JLOAD'
         LA    R01,ADDNAME
*        BAL   R14,SCHTIOT
*        BE    &PRE.140
         BAL   R14,CONCAT          ALLOCATE LOAD LIBRARY
         LTR   R15,R15
         BNZ   &PRE.900
         SPACE
*   ALLOCATE OUTPUT JCL DATASET
         SPACE
&B       SETB  (T'&JCL NE 'O')     SET ON IF PERMANENT JCL
&C       SETC  (&B)'JCLDS'.(1-&B)'JCLSET'
&PRE.140 DS    0H
         LA    R01,&C              ADDRESS OUTPUT JCL DATASET
         ST    R01,APDE            SET POINTER TO PDE FOR DSNAME
         AIF   (NOT &B).TJCL1
         LA    R00,5
         STH   R00,ASUFFIXL
         MVC   ASUFFIX,=CL9'.CNTL'
         MVI   AFLAG1,AMOD
         AGO   .PJCL
.TJCL1   ANOP              TEMPORARY DATASET FOR JCL
         MVC   AUNIT,=CL8'&UNITJCL' STORE UNIT NAME
         MVI   AFLAG1,ATEMP        MARK AS TEMP DATASET
.PJCL    ANOP              PERMANENT DATASET FOR JCL
         CLI   JCL+1,1             Q... JCL?
         BE    &PRE.143            A... YES
         MVI   AFLAG1,ANULL        INDICATE NULLFILE
&PRE.143 DS    0H
         MVC   ABLKSIZ,=H'&JCLBLK' SET DEFAULT BLKSIZE
         MVC   ADDNAME,=CL8'$$JCL'
         BAL   R14,ALLOCATE        ALLOCATE JCL DATASET
         LTR   R15,R15
         BNZ   &PRE.900
         SPACE
*   ALLOCATE OUTPUT PRINT FILE
         SPACE
         CLI   LIST+1,3            Q... PRINT REQUEST?
         BNE   &PRE.145            A... NO
         LA    R01,PRTNAME         ADDRESS OUTPUT PRINT DATAS
         ST    R01,APDE            SET POINTER TO PDE FOR DSNAME
         LA    R00,5
         STH   R00,ASUFFIXL        STORE SUFFIX LENGTH
         MVC   ASUFFIX,=CL9'.LIST'  STORE SUFFIX
         OI    AFLAG1,AMOD         FORCE ALLOCATION
         B     &PRE.150
&PRE.145 MVI   AFLAG1,ASOUT         FLAG SYSOUT REQUEST
         L     R01,PRTCLASS
         MVC   ASOUTC,0(R01)
         CLI   LIST+1,1            Q... LIST?
         BE    &PRE.150            A... YES
         MVI   AFLAG1,ANULL        INDICATE NULLFILE
&PRE.150 DS    0H
         MVC   ADDNAME,=CL8'$$JPRINT'
         MVC   ABLKSIZ,=H'&PRTBLK' SET DEFAULT BLKSIZE
         BAL   R14,ALLOCATE        ALLOCATE PRINT DATASET
         LTR   R15,R15
         BNZ   &PRE.900
         CLI   TSO+1,X'01'  RUNNING NOW?
         BNE   &PRE.170
*   ALLOCATE OUTPUT PRINT FOR EXECUTION MONITOR
         SPACE
         CLI   LIST+1,3            Q... PRINT REQUEST?
         BNE   &PRE.155            A... NO
         LA    R01,PRTNAME         ADDRESS OUTPUT PRINT DATAS
         ST    R01,APDE            SET POINTER TO PDE FOR DSNAME
         LA    R00,5
         STH   R00,ASUFFIXL        STORE SUFFIX LENGTH
         MVC   ASUFFIX,=CL9'.LIST'  STORE SUFFIX
         OI    AFLAG1,AMOD         FORCE ALLOCATION
         B     &PRE.160
&PRE.155 MVI   AFLAG1,ASOUT         FLAG SYSOUT REQUEST
         L     R01,PRTCLASS
         MVC   ASOUTC,0(R01)
         CLI   LIST+1,1            Q... LIST?
         BE    &PRE.150            A... YES
         MVI   AFLAG1,ANULL        INDICATE NULLFILE
&PRE.160 DS    0H
         MVC   ADDNAME,=CL8'JOLPRINT'
         MVC   ABLKSIZ,=H'&PRTBLK' SET DEFAULT BLKSIZE
         BAL   R14,ALLOCATE        ALLOCATE PRINT DATASET
         LTR   R15,R15
         BNZ   &PRE.900
&PRE.170 DS    0H                                                 J40B
         SPACE 3
&A       SETA  2                  SET NUMBER OF WORK AREAS
.ALOOP   LA    R00,UT&A           ADDRESS WORK AREA DESCRIPTION
         ST    R00,APDE
         MVC   ABLKSIZ,=H'800'
         MVC   ADDNAME,=CL8'$$JWORK&A'
         MVC   AUNIT,=CL8'&UNITWRK'
         BAL   R14,ALLOCATE        ALLOCATE WORK DATASET
         LTR   R15,R15
         BNZ   &PRE.900
&A       SETA  &A-1
         AIF   (&A GT 0).ALOOP
         BAL   R14,STPARMS         GO AND SET-UP JOL PARAMETERS
         SPACE 3
*   INTERFACE TO USER EXIT IF PRESENT
         SPACE
         WXTRN UJTEXT1                                           88036
         ICM   R15,15,=V(UJTEXT1) Q...  EXIT PRESENT?
         BZ    &PRE.310            A... NO: SKIP IT
         LA    R01,USERPRML        BUILD PARAMETER LIST
         ST    R01,USERPLST
         LA    R01,USERPLST
         MVI   USERPLST,X'80'     MARK THE END
         XC    USERPRM,USERPRM     CLEAR PARAMETER AREA
         XC    USERPRML,USERPRML
         BALR  R14,R15             CALL HIM
         CH    R15,=H'4'           TEST RC
         BH    &PRE.320            > 4 THEN CANCEL CALL
         BL    &PRE.310            < 4 THEN NO EXTRA PARAMETERS
         LA    R14,PRMOPTNS+2      CONNECT THE TWO STRINGS
         AH    R14,PRMOPTNS
         LH    R01,USERPRML
         LA    R00,USERPRM
         LR    R15,R01
         MVI   0(R14),C' '
         LA    R14,1(0,R14)
         MVCL  R14,R00
         LA    R00,1
         AH    R00,USERPRML        ADJUST LENGTH
         AH    R00,PRMOPTNS
         STH   R00,PRMOPTNS
&PRE.310 DS    0H
         MVC   LINKSFE,LINKSFL
         MVC   LINKDCBE,LINKDCBL
         XC    DCBEXLST-IHADCB+LINKDCBE+1(3),DCBEXLST-IHADCB+LINKDCBE+1
*        MVI   OPENLIST,X'80'                              CVC
         LA    R01,OPENLIST                                CVC
         LA    R00,LINKDCBE                                CVC
         ST    R00,0(1,0)                                  CVC
         MVI   OPENLIST,X'80'
*        OPEN  LINKDCBE,MF=(E,OPENLIST)
         OI    PARM,X'80'          MARK END OF LIST
         TM    FLAG,TERMIN         Q... INPUT FROM TERMINAL?
         BZ    &PRE.315            A... NO
         STFSMODE ON,INITIAL=YES                                  87350
         LA    R00,14
         LA    R01,=X'27F5C2115D7F1DE811C14F1D4013'
         ICM   R01,8,=AL1(B'00000011') TPUT FULLSCR
         TPUT  (1),(0),R
         STLINENO LINE=1,MODE=OFF                                 87350
.*       LA    R01,MSG8+2                                         87350
.*       LH    R00,MSG8                                           87350
.*       TPUT  (1),(0) FULLSCR                                    87350
.*       STAUTOCP
.*       STFSMODE OFF                                             87350
         LA    R15,MSG8            TIME TO ENTER JOL COMMANDS
         ST    R15,OLD1#1             SO TELL THE NICE USER
         LA    R15,1
         ST    R15,OLD1
         PUTLINE MF=(E,IOPL),PARM=IOPB,                                C
               OUTPUT=(OLD1,TERM,SINGLE,INFOR)
&PRE.315 DS    0H
         LINK  EP=&PGM,MF=(E,PARM),SF=(E,LINKSFE) DCB=LINKDCBE
&PRE.320 DS    0H
         L     R14,4(,R13)
         ST    R15,16(,R14)
         CLI   SYNT+1,1             IF SYNTAX CHECK               87350
         BE    &PRE.400             THEN FORGET IT                87350
         SPACE
         LTR   R15,R15             Q... DO I NEED TO FLUSH?
         BZ    &PRE.500            A... NO
         CLI   JCL+1,X'01'         ANY JCL TO SUBMIT?
         BNE   &PRE.400            NO: DROP IT OFF
         CLI   LET+1,X'01'         LET SPECIFIED?
         BNE   &PRE.400            NO: DROP IT OFF
         L     R14,LETVAL
         C     R15,0(R14)          Q... HOW ABOUT MAXCC BY LET KEYWORD
         BNH   &PRE.500            A... HE SAYS OK
         CLI   SUB+1,1             Q... SUBMIT SPECIFIED?
         BE    &PRE.500            A... YES:
         CLI   LETPRPT+1,1         Q... LET(XX,PROMPT)?
         BNE   &PRE.400            A... NO: KILL THE JOB
         OI    FLAG,QSUB           ASK WHETHER TO SUBMIT
         B     &PRE.500
&C       SETC  '&PRE'.'NJCL'
&C       DS    0H                  COME HERE IF NOT A JCL/JOL USER
         LA    R15,MSG7 ERROR MSG NOT ALLOWED TO USE THE JOL COMMAND
         ST    R15,OLD1#1
         LA    R15,1
         ST    R15,OLD1
         PUTLINE MF=(E,IOPL),PARM=IOPB,                                C
               OUTPUT=(OLD1,TERM,SINGLE,INFOR)
&PRE.400 DS    0H
         TCLEARQ INPUT             FLUSH ANY TYPE-AHEAD
         STACK PARM=IOPB,DELETE=ALL,MF=(E,IOPL)
*        CLOSE MF=(E,OPENLIST)
         B     &PRE.900            QUIT
&PRE.500 DS    0H
*        CLOSE MF=(E,OPENLIST)
         BAL   R14,QSUBMIT         FIND OUT WHETHER TO SUBMIT OR RUN
         B     &PRE.900            IF RETURN HERE THEN NO
         DS    0H                  RETURN HERE MEANS YES
         MVC   DCBDDNAM-IHADCB+LINKDCBE,=CL8'$$JCL'
         LA    R00,JFCBPTR
         STCM  R00,7,DCBEXLST-IHADCB+LINKDCBE+1
         LA    R00,WRKJFCB
         ST    R00,JFCBPTR