         MACRO
&NAME    GETPARM3 &PARM1
&NAME    LA     R1,&PARM1
         L      R15,=V(GETPARM3)
         BALR   R14,R15
         MEND
