         MACRO
&NAME    VSCLOSE &VSFILE,&MF=I,&EPLOC=VSAMCLS,&NRETURN=,&ERRET=
&NAME    VSOPEN  &VSFILE,MF=&MF,EPLOC=&EPLOC,ZOPT=CLOSE,               .
               NRETURN=&NRETURN,ERRET=&ERRET
         MEND
